Version 4
SHEET 1 1572 680
WIRE -704 -304 -944 -304
WIRE -112 -304 -704 -304
WIRE 816 -304 -112 -304
WIRE 192 -208 -480 -208
WIRE 1120 -208 448 -208
WIRE -112 -128 -112 -304
WIRE 816 -128 816 -304
WIRE -240 -80 -352 -80
WIRE -176 -80 -240 -80
WIRE 752 -80 688 -80
WIRE -704 -64 -704 -304
WIRE 192 -64 192 -208
WIRE 1120 -64 1120 -208
WIRE -240 0 -240 -80
WIRE 688 0 688 -80
WIRE -112 16 -112 -32
WIRE 144 16 -112 16
WIRE 816 16 816 -32
WIRE 1072 16 816 16
WIRE -352 48 -352 -80
WIRE -304 48 -352 48
WIRE 624 48 576 48
WIRE -112 64 -112 16
WIRE 816 64 816 16
WIRE -480 96 -480 -208
WIRE 448 96 448 -208
WIRE 192 112 192 96
WIRE 256 112 192 112
WIRE 1120 112 1120 32
WIRE 1120 112 320 112
WIRE 192 144 192 112
WIRE 688 192 688 96
WIRE -240 240 -240 96
WIRE 64 288 32 288
WIRE 192 288 192 224
WIRE 192 288 144 288
WIRE -352 320 -352 48
WIRE 576 320 576 48
WIRE 32 336 32 288
WIRE 192 336 192 288
WIRE -944 496 -944 176
WIRE -704 496 -704 16
WIRE -704 496 -944 496
WIRE -480 496 -480 176
WIRE -480 496 -704 496
WIRE -352 496 -352 400
WIRE -352 496 -480 496
WIRE -240 496 -240 320
WIRE -240 496 -352 496
WIRE -112 496 -112 144
WIRE -112 496 -240 496
WIRE 32 496 32 416
WIRE 32 496 -112 496
WIRE 192 496 192 416
WIRE 192 496 32 496
WIRE 448 496 448 176
WIRE 448 496 192 496
WIRE 576 496 576 400
WIRE 576 496 448 496
WIRE 688 496 688 272
WIRE 688 496 576 496
WIRE 816 496 816 144
WIRE 816 496 688 496
WIRE -480 528 -480 496
FLAG -480 528 0
SYMBOL voltage -480 80 R0
WINDOW 123 0 0 Left 0
WINDOW 39 0 0 Left 0
SYMATTR InstName V1
SYMATTR Value SINE(0 26.4 0.25 0 0 0 3)
SYMBOL voltage -352 304 R0
WINDOW 123 0 0 Left 0
WINDOW 39 0 0 Left 0
SYMATTR InstName V3
SYMATTR Value PULSE(0 3.5 0 0 0 0.1 0.2 50)
SYMBOL res 176 320 R0
SYMATTR InstName R1
SYMATTR Value 51.75k
SYMBOL res 176 128 R0
SYMATTR InstName R2
SYMATTR Value 51.75k
SYMBOL res 16 320 R0
SYMATTR InstName R3
SYMATTR Value 3.5k
SYMBOL pnp -176 -32 M180
SYMATTR InstName Q1
SYMBOL npn -304 0 R0
SYMATTR InstName Q2
SYMBOL res -128 48 R0
SYMATTR InstName R4
SYMATTR Value 10k
SYMBOL nmos 144 -64 R0
SYMATTR InstName M1
SYMATTR Value IPT004N03L
SYMBOL voltage 448 80 R0
WINDOW 123 0 0 Left 0
WINDOW 39 0 0 Left 0
SYMATTR InstName V2
SYMATTR Value 3.0
SYMBOL voltage 576 304 R0
WINDOW 123 0 0 Left 0
WINDOW 39 0 0 Left 0
SYMATTR InstName V4
SYMATTR Value PULSE(0 3.5 0.13 0 0 0.05 0.2 50)
SYMBOL pnp 752 -32 M180
SYMATTR InstName Q3
SYMBOL npn 624 0 R0
SYMATTR InstName Q4
SYMBOL res 800 48 R0
SYMATTR InstName R9
SYMATTR Value 10k
SYMBOL nmos 1072 -64 R0
SYMATTR InstName M2
SYMATTR Value IPT004N03L
SYMBOL diode 320 96 R90
WINDOW 0 0 32 VBottom 2
WINDOW 3 32 32 VTop 2
SYMATTR InstName D1
SYMBOL diode 176 32 R0
SYMATTR InstName D2
SYMBOL voltage -704 -80 R0
WINDOW 123 0 0 Left 0
WINDOW 39 0 0 Left 0
SYMATTR InstName V5
SYMATTR Value SINE(5.4 21 0.25 0 0 0 100)
SYMBOL voltage -944 80 R0
WINDOW 123 0 0 Left 0
WINDOW 39 0 0 Left 0
SYMATTR InstName V6
SYMATTR Value 5.4
SYMBOL res 160 272 R90
WINDOW 0 0 56 VBottom 2
WINDOW 3 32 56 VTop 2
SYMATTR InstName R6
SYMATTR Value 100k
SYMBOL res -256 224 R0
SYMATTR InstName R5
SYMATTR Value 10k
SYMBOL res 672 176 R0
SYMATTR InstName R7
SYMATTR Value 10k
TEXT -424 544 Left 2 !;tran 0 1 0 0.0001
TEXT -976 568 Left 2 !.tran 0 1 0 0.0001
