Version 4
SHEET 1 2400 680
WIRE 1648 -320 768 -320
WIRE 1472 -272 1376 -272
WIRE 1776 -272 1712 -272
WIRE 1472 -224 1472 -272
WIRE 768 -208 768 -320
WIRE 768 -208 -96 -208
WIRE 1776 -176 1776 -272
WIRE 1648 -144 1648 -224
WIRE 1648 -144 1520 -144
WIRE 1984 -128 1840 -128
WIRE 528 -96 128 -96
WIRE 1472 -32 1472 -128
WIRE 1472 -32 672 -32
WIRE 1984 -16 1984 -128
WIRE 768 0 768 -208
WIRE 1648 0 1648 -144
WIRE 1776 0 1776 -80
WIRE 944 48 832 48
WIRE -96 64 -96 -208
WIRE 1376 80 1376 -272
WIRE 528 96 528 -96
WIRE 128 128 128 -96
WIRE 944 128 944 48
WIRE 768 176 768 96
WIRE 768 176 576 176
WIRE 1136 176 1008 176
WIRE 528 208 528 192
WIRE 1136 240 1136 176
WIRE 768 272 768 176
WIRE 944 272 944 224
WIRE 528 288 528 272
WIRE 608 288 528 288
WIRE 672 288 672 -32
WIRE 528 320 528 288
WIRE -96 432 -96 144
WIRE 128 432 128 208
WIRE 128 432 -96 432
WIRE 528 432 528 400
WIRE 528 432 128 432
WIRE 768 432 768 352
WIRE 768 432 528 432
WIRE 944 432 944 352
WIRE 944 432 768 432
WIRE 1136 432 1136 320
WIRE 1136 432 944 432
WIRE 1376 432 1376 160
WIRE 1376 432 1136 432
WIRE 1648 432 1648 80
WIRE 1648 432 1376 432
WIRE 1776 432 1776 80
WIRE 1776 432 1648 432
WIRE 1984 432 1984 64
WIRE 1984 432 1776 432
WIRE 528 480 528 432
FLAG 528 480 0
SYMBOL voltage 128 112 R0
WINDOW 123 0 0 Left 0
WINDOW 39 0 0 Left 0
SYMATTR InstName V1
SYMATTR Value 3.2
SYMBOL nmos 576 96 M0
SYMATTR InstName M1
SYMBOL res 512 304 R0
SYMATTR InstName R1
SYMATTR Value 3.5k
SYMBOL pnp 832 96 R180
SYMATTR InstName Q1
SYMBOL npn 1008 128 M0
SYMATTR InstName Q2
SYMBOL res 752 256 R0
SYMATTR InstName R2
SYMATTR Value 10k
SYMBOL res 928 256 R0
SYMATTR InstName R3
SYMATTR Value 10k
SYMBOL voltage 1136 224 R0
WINDOW 123 0 0 Left 0
WINDOW 39 0 0 Left 0
SYMATTR InstName V2
SYMATTR Value PULSE(0 3.5 0 0 0 0.1 0.2 50)
SYMBOL voltage -96 48 R0
WINDOW 123 0 0 Left 0
WINDOW 39 0 0 Left 0
SYMATTR InstName V3
SYMATTR Value 10
SYMBOL pnp 1712 -224 R180
SYMATTR InstName Q3
SYMBOL npn 1840 -176 M0
SYMATTR InstName Q4
SYMBOL nmos 1520 -224 M0
SYMATTR InstName M2
SYMBOL voltage 1984 -32 R0
WINDOW 123 0 0 Left 0
WINDOW 39 0 0 Left 0
SYMATTR InstName V4
SYMATTR Value PULSE(0 3.5 0.13 0 0 0.05 0.2 50)
SYMBOL res 1760 -16 R0
SYMATTR InstName R4
SYMATTR Value 10k
SYMBOL res 1632 -16 R0
SYMATTR InstName R5
SYMATTR Value 10k
SYMBOL diode 512 208 R0
SYMATTR InstName D1
SYMBOL diode 672 272 R90
WINDOW 0 0 32 VBottom 2
WINDOW 3 32 32 VTop 2
SYMATTR InstName D2
SYMBOL voltage 1376 64 R0
WINDOW 123 0 0 Left 0
WINDOW 39 0 0 Left 0
SYMATTR InstName V5
SYMATTR Value 3.0
TEXT -130 504 Left 2 !.tran 0 1 0 0.0005
